04061nam a22006975i 45000010014000000030009000140050017000230060019000400070015000590080041000740200018001150240031001330350021001640350022001850400033002070410008002400440015002480720023002632450076002862500017003622640062003792640011004413000031004523360026004833370026005093380036005353470024005715050373005955060104009685380049010725460016011215880112011376500031012497000082012807000085013627000087014477000083015347000086016177000086017037000084017897000089018737000087019627000081020497000075021307000083022057000077022887000089023657000087024547000085025417000082026267000085027087000088027937000081028817730117029627760025030798560042031048560049031468560068031959120076032639120024033399780520341708DE-B159720210423111757.0m|||||o||d||||||||cr || ||||||||210423t20201974cau    fo  d z      eng d  a97805203417087 a10.1525/97805203417082doi  a(DE-B1597)565364  a(OCoLC)1224277918  aDE-B1597bengcDE-B1597erda0 aeng  acaucUS-CA 7aNON0000002bisacsh00aJames Joyce’s Ulysses :bCritical Essays /cDavid Hayman, Clive Hart.  aReprint 2020 1aBerkeley, CA : bUniversity of California Press, c[2020] 4c©1974  a1 online resource (568 p.)  atextbtxt2rdacontent  acomputerbc2rdamedia  aonline resourcebcr2rdacarrier  atext filebPDF2rda00tFrontmatter -- tCONTENTS -- tPREFACE -- tACKNOWLEDGMENTS -- tABBREVIATIONS AND CONVENTIONS -- tTELEMACHUS -- tNESTOR -- tPROTEUS -- tCALYPSO -- tLOTUSEATERS -- tHADES -- tAEOLUS -- tLESTRYGONIANS -- tSCYLLA AND CHARYBDIS -- tWANDERING ROCKS -- tSIRENS -- tCYCLOPS -- tNAUSICAA -- tTHE OXEN OF THE SUN -- tCIRCE -- tEUMAEUS -- tITHACA -- tPENELOPE0 arestricted accessuhttp://purl.org/coar/access_right/c_16ecfonline access with authorization2star  aMode of access: Internet via World Wide Web.  aIn English.0 aDescription based on online resource; title from PDF title page (publisher's Web site, viewed 23. Apr 2021) 7aNON-CLASSIFIABLE.2bisacsh1 aAdams, R. M., econtributor.4ctb4https://id.loc.gov/vocabulary/relators/ctb1 aAtherton, J. S., econtributor.4ctb4https://id.loc.gov/vocabulary/relators/ctb1 aBenstock, Bernard, econtributor.4ctb4https://id.loc.gov/vocabulary/relators/ctb1 aBoyle, Robert, econtributor.4ctb4https://id.loc.gov/vocabulary/relators/ctb1 aBruns, Gerald L., econtributor.4ctb4https://id.loc.gov/vocabulary/relators/ctb1 aCope, Jackson L., econtributor.4ctb4https://id.loc.gov/vocabulary/relators/ctb1 aEpstein, E. L., econtributor.4ctb4https://id.loc.gov/vocabulary/relators/ctb1 aFriedman, Melvin J., econtributor.4ctb4https://id.loc.gov/vocabulary/relators/ctb1 aGlasheen, Adaline, econtributor.4ctb4https://id.loc.gov/vocabulary/relators/ctb1 aHart, Clive, econtributor.4ctb4https://id.loc.gov/vocabulary/relators/ctb1 aHart, Clive, eeditor.4edt4http://id.loc.gov/vocabulary/relators/edt1 aHayman, David, econtributor.4ctb4https://id.loc.gov/vocabulary/relators/ctb1 aHayman, David, eeditor.4edt4http://id.loc.gov/vocabulary/relators/edt1 aHerring, Phillip F., econtributor.4ctb4https://id.loc.gov/vocabulary/relators/ctb1 aHodgart, M. J. C., econtributor.4ctb4https://id.loc.gov/vocabulary/relators/ctb1 aKellogg, Robert, econtributor.4ctb4https://id.loc.gov/vocabulary/relators/ctb1 aKenner, Hugh, econtributor.4ctb4https://id.loc.gov/vocabulary/relators/ctb1 aLitz, A. Walton, econtributor.4ctb4https://id.loc.gov/vocabulary/relators/ctb1 aMorse, J. Mitchell, econtributor.4ctb4https://id.loc.gov/vocabulary/relators/ctb1 aSenn, Fritz, econtributor.4ctb4https://id.loc.gov/vocabulary/relators/ctb08iTitle is part of eBook package:dDe GruytertUniversity of California Press eBook Package Archivez97831106353480 cprintz978052003275040uhttps://doi.org/10.1525/978052034170840uhttps://www.degruyter.com/isbn/9780520341708423Coveruhttps://www.degruyter.com/cover/covers/9780520341708.jpg  a978-3-11-063534-8  University of California Press eBook Package Archive  aGBV-deGruyter-alles