03387nam a2200649Ia 45000010014000000030009000140050017000230060019000400070015000590080041000740200018001150240031001330350021001640350022001850400033002070410008002400440015002480500014002630720023002770820014003001000078003142450082003922500017004742640062004912640011005533000031005643360026005953370026006213380036006473470024006835050479007075060104011865200409012905380049016995460016017485880112017646500037018766500034019136500023019476500044019706500059020146500021020736500016020946500020021106500026021306500030021566500016021866500026022026500078022287730120023068560061024268560049024878560080025369120085026169120012027019120024027139780520314955DE-B159720240426104009.0m|||||o||d||||||||cr || ||||||||240426t20242024cau    fo  d z      eng d  a97805203149557 a10.1525/97805203149552doi  a(DE-B1597)565548  a(OCoLC)1229161818  aDE-B1597bengcDE-B1597erda0 aeng  acaucUS-CA 4aPR6019.O9 7aLIT0041202bisacsh04a823/.9/121 aShechner, Mark, eauthor.4aut4http://id.loc.gov/vocabulary/relators/aut10aJoyce in Nighttown :bA Psychoanalytic Inquiry into Ulysses /cMark Shechner.  aReprint 2020 1aBerkeley, CA : bUniversity of California Press, c[2024] 4c©2024  a1 online resource (286 p.)  atextbtxt2rdacontent  acomputerbc2rdamedia  aonline resourcebcr2rdacarrier  atext filebPDF2rda00tFrontmatter -- tContents -- tAcknowledgments -- tAbbreviations and a Note on Editions Used -- tIntroduction -- tTELEMACHIA -- t1. The Passion of Stephen Dedalus -- tODYSSEY -- t2. Interlude: A Correspondence of Joyces -- t3. Whom the Lord Loveth: Five Essays on Circe -- t4. Nausikaa: The Anatomy of a Virgin -- tNOSTOS -- t5. Das Fleisch das Stets Bejaht -- t6. The Song of the Wandering Aengus: James Joyce and His Mother -- tSelected Bibliography -- tIndex0 arestricted accessuhttp://purl.org/coar/access_right/c_16ecfonline access with authorization2star  aThis title is part of UC Press's Voices Revived program, which commemorates University of California Press’s mission to seek out and cultivate the brightest minds and give them voice, reach, and impact. Drawing on a backlist dating to 1893, Voices Revived makes high-quality, peer-reviewed scholarship accessible once again using print-on-demand technology. This title was originally published in 1974.  aMode of access: Internet via World Wide Web.  aIn English.0 aDescription based on online resource; title from PDF title page (publisher's Web site, viewed 26. Apr 2024) 0aLoss (Psychology) in literature. 0aMarried people in literature. 0aMen in literature. 0aPsychoanalysis and literaturezIreland. 0aPsychological fiction, EnglishxHistory and criticism. 4aliterary theory. 4aliterature. 4apsychoanalysis. 4apsychological theory. 4apsychology of literature. 4apsychology. 4atheory of literature. 7aLITERARY CRITICISM / European / English, Irish, Scottish, Welsh.2bisacsh08iTitle is part of eBook package:dDe GruytertUniversity of California Press Package Archive Pre-2000z978311063534840uhttps://doi.org/10.1525/9780520314955?locatt=mode:legacy40uhttps://www.degruyter.com/isbn/9780520314955423Coveruhttps://www.degruyter.com/document/cover/isbn/9780520314955/original  a978-3-11-063534-8  University of California Press Package Archive Pre-2000b2000  aEBA_EMB  aGBV-deGruyter-alles