03085nmm a2200565Ia 45000010014000000030009000140050017000230060019000400070015000590080041000740200018001150240031001330350021001640350022001850400033002070410008002400440015002480720023002630820019002861000078003052450082003832500017004652640062004822640011005443000031005553360026005863370026006123380036006383470024006745050479006985060104011775200409012815380049016905460016017395880112017556500021018676500016018886500020019046500026019246500030019506500016019806500026019966500078020227730120021008560061022208560049022818560080023309120085024109120024024959780520314955DE-B159720240328111612.0m|||||o||d||||||||cr || ||||||||240328t20202024cau    fo  d z      eng d  a97805203149557 a10.1525/97805203149552doi  a(DE-B1597)565548  a(OCoLC)1229161818  aDE-B1597bengcDE-B1597erda0 aeng  acaucUS-CA 7aLIT0041202bisacsh04a823.912qOCoLC1 aShechner, Mark, eauthor.4aut4http://id.loc.gov/vocabulary/relators/aut10aJoyce in Nighttown :bA Psychoanalytic Inquiry into Ulysses /cMark Shechner.  aReprint 2020 1aBerkeley, CA : bUniversity of California Press, c[2020] 4c©2024  a1 online resource (286 p.)  atextbtxt2rdacontent  acomputerbc2rdamedia  aonline resourcebcr2rdacarrier  atext filebPDF2rda00tFrontmatter -- tContents -- tAcknowledgments -- tAbbreviations and a Note on Editions Used -- tIntroduction -- tTELEMACHIA -- t1. The Passion of Stephen Dedalus -- tODYSSEY -- t2. Interlude: A Correspondence of Joyces -- t3. Whom the Lord Loveth: Five Essays on Circe -- t4. Nausikaa: The Anatomy of a Virgin -- tNOSTOS -- t5. Das Fleisch das Stets Bejaht -- t6. The Song of the Wandering Aengus: James Joyce and His Mother -- tSelected Bibliography -- tIndex0 arestricted accessuhttp://purl.org/coar/access_right/c_16ecfonline access with authorization2star  aThis title is part of UC Press's Voices Revived program, which commemorates University of California Press’s mission to seek out and cultivate the brightest minds and give them voice, reach, and impact. Drawing on a backlist dating to 1893, Voices Revived makes high-quality, peer-reviewed scholarship accessible once again using print-on-demand technology. This title was originally published in 1974.  aMode of access: Internet via World Wide Web.  aIn English.0 aDescription based on online resource; title from PDF title page (publisher's Web site, viewed 28. Mrz 2024) 4aliterary theory. 4aliterature. 4apsychoanalysis. 4apsychological theory. 4apsychology of literature. 4apsychology. 4atheory of literature. 7aLITERARY CRITICISM / European / English, Irish, Scottish, Welsh.2bisacsh08iTitle is part of eBook package:dDe GruytertUniversity of California Press Package Archive Pre-2000z978311063534840uhttps://doi.org/10.1525/9780520314955?locatt=mode:legacy40uhttps://www.degruyter.com/isbn/9780520314955423Coveruhttps://www.degruyter.com/document/cover/isbn/9780520314955/original  a978-3-11-063534-8  University of California Press Package Archive Pre-2000b2000  aGBV-deGruyter-alles