04321nam a22008175i 45000010014000000030009000140050017000230060019000400070015000590080041000740100015001150190022001300200018001520240031001700350021002010350022002220400033002440410008002770440011002850720023002961000077003192450093003962500042004892640046005312640011005773000036005883360026006243370026006503380036006763470024007124900023007365060104007595200882008635200408017455380049021535460015022025880112022176500029023296500027023586500024023856500015024096500023024246500020024476500044024676530025025116530021025366530021025576530016025786530018025946530019026127000078026317000075027097000092027847730104028767730129029807760024031097760025031338560042031588560049032008560080032499120022033299120016033519120014033679120015033819120015033969120024034119120014034359120012034499120021034619120021034829783110641455DE-B159720220524034747.0m|||||o||d||||||||cr || ||||||||220524t20222022gw     fo  d z      ger d  a2021948864  a(OCoLC)1302164844  a97831106414557 a10.1515/97831106414552doi  a(DE-B1597)508148  a(OCoLC)1301546858  aDE-B1597bengcDE-B1597erda0 ager  agwcDE 7aSCI0850002bisacsh1 aSchade, Heinz, eauthor.4aut4http://id.loc.gov/vocabulary/relators/aut10aStrömungslehre /cHeinz Schade, Ewald Kunz, Frank Kameier, Christian Oliver Paschereit.  a5. korrigierte und erweiterte Auflage 1aBerlin ;aBoston : bDe Gruyter, c[2022] 4c©2022  a1 online resource (XIV, 652 p.)  atextbtxt2rdacontent  acomputerbc2rdamedia  aonline resourcebcr2rdacarrier  atext filebPDF2rda0 aDe Gruyter Studium0 arestricted accessuhttp://purl.org/coar/access_right/c_16ecfonline access with authorization2star  aDie 5., korrigierte und erweiterte Auflage dieses Standardwerks behandelt die Grundlagen der Strömungslehre in bewährter didaktischer Aufbereitung als übersichtliche Lehreinheiten mit umfangreichem Feedback. Konsequent von der Kontinuumshypothese ausgehend vermittelt es klare Vorstellungen von physikalischen Ursachen und den zugrundeliegenden Idealisierungen sowie von numerischen Berechnungen und Anwendungen, wie sie an Universitäten und Fachhochschulen ab dem 3. Semester vermittelt werden. Neu in der 5. Aufl age: Unterkapitel „Strömungslehre lernen mittels CFD“ und Auswirkung verschiedener Turbulenzmodelle bei der numerischen Simulation. Mittels passend zum Buch angefertigten YouTube Filmen wird die Industriesoftware ANSYS CFX zur Strömungsvisualisierung und für überschaubare Berechnungen didaktisch genutzt. Inklusive Einführung in die Tensorrechnung.  aThe fifth corrected and expanded edition of this standard reference work, this textbook effectively lays out the fundamental principles of fluid mechanics in clearly organized teaching units with comprehensive feedback. Starting with the continuum hypothesis, the book gives readers a firm grasp of physical causes, idealized models, and principles of numerical calculation as well as their application.  aMode of access: Internet via World Wide Web.  aIn German.0 aDescription based on online resource; title from PDF title page (publisher's Web site, viewed 24. Mai 2022) 4aInstationäre Strömung. 4aStationäre Strömung. 4aStrömungsmechanik. 4aTurbulenz. 4aViskose Strömung. 4aVisualisierung. 7aSCIENCE / Mechanics / Fluids.2bisacsh  aNon-stationary flow.  afluid mechanics.  astationary flow.  aturbulence.  aviscous flow.  avisualization.1 aKameier, Frank, eauthor.4aut4http://id.loc.gov/vocabulary/relators/aut1 aKunz, Ewald, eauthor.4aut4http://id.loc.gov/vocabulary/relators/aut1 aPaschereit, Christian Oliver, eauthor.4aut4http://id.loc.gov/vocabulary/relators/aut08iTitle is part of eBook package:dDe GruytertEBOOK PACKAGE COMPLETE 2022z9783110994810oZDB-23-DGG08iTitle is part of eBook package:dDe GruytertEBOOK PACKAGE Physics, Chemistry, Mat.Sc, Geosc 2022z9783110993219oZDB-23-DPC0 cEPUBz97831106415540 cprintz978311064144840uhttps://doi.org/10.1515/978311064145540uhttps://www.degruyter.com/isbn/9783110641455423Coveruhttps://www.degruyter.com/document/cover/isbn/9783110641455/original  aEBA_CL_CHCOMSGSEN  aEBA_CL_MTPY  aEBA_DGALL  aEBA_EBKALL  aEBA_STMALL  aGBV-deGruyter-alles  aPDA12STME  aPDA5EBK  aZDB-23-DGGb2022  aZDB-23-DPCb2022